14
gdb 5002	3.42617	2.32039	1.38493	2.7325	69.86	-0.186	-0.0168	0.1692	832.2033	0.110612	-378.79894	-378.792396	-378.791452	-378.829265	26.053	
N	 0.0105477848	 1.3899954536	 0.1317761525	-0.57648
C	-0.0640419345	 0.0178998378	 0.0445199336	 0.191218
C	-1.2117767687	-0.7312688705	 0.0199444843	-0.183466
C	-1.1584898683	-2.1535133532	-0.0114864232	-0.137472
C	 0.0462014302	-2.7768100679	-0.0207654047	-0.008002
N	 1.1935746134	-2.0203816861	-0.0068230155	-0.361674
C	 1.2477267854	-0.6380707317	 0.014705363	 0.407716
O	 2.3139820706	-0.0274763687	-0.0007057111	-0.422694
H	 0.9313304702	 1.7436035423	-0.0931472077	 0.266074
H	-0.7613962464	 1.9243764298	-0.2327664701	 0.24869
H	-2.1776921671	-0.2347687716	 0.0310508492	 0.089693
H	-2.069508918	-2.7369751602	-0.0244833925	 0.101195
H	 0.181645833	-3.8494680726	-0.0398302677	 0.125198
H	 2.0988374953	-2.468259621	-0.0306096502	 0.260003
162.0173	268.783	320.1657	388.2121	436.1636	483.119	542.9478	567.0312	579.1306	592.7129	700.0773	739.4436	758.4011	794.3167	875.6411	911.0862	912.324	1046.5988	1086.0777	1155.8571	1188.9089	1279.0303	1318.4406	1399.2529	1460.2706	1480.4031	1588.2812	1631.6438	1672.4372	1750.2976	3167.6312	3213.9339	3233.0417	3553.873	3612.2975	3683.1062
NC1=CC=CNC1=O	Nc1ccc[nH]c1=O	
InChI=1S/C5H6N2O/c6-4-2-1-3-7-5(4)8/h1-3H,6H2,(H,7,8)	InChI=1S/C5H6N2O/c6-4-2-1-3-7-5(4)8/h1-3H,6H2,(H,7,8)
