25
gdb 100001	2.47016	1.02839	0.91314	2.7947	89.09	-0.2415	-0.0178	0.2237	1457.8733	0.225212	-389.510831	-389.499218	-389.498274	-389.547681	42.563	
C	-0.172367978	 1.5875389049	-0.0818573038	-0.40631
C	-0.03891507	 0.0660306953	 0.0618178707	-0.18392
C	 0.8114123464	-0.4534877506	 1.2529711906	 0.250634
C	 2.2423272128	 0.1166716304	 1.1859709277	-0.425389
C	 0.1552590245	-0.0259294291	 2.582084592	-0.420283
C	 0.8079859196	-2.023430921	 1.1873201187	-0.057209
C	 1.6199596803	-2.6366407059	 0.0286514286	-0.432428
C	 1.3182016495	-2.655857436	 2.4696199904	 0.145956
O	 0.6736696495	-3.3784957269	 3.1865028475	-0.257162
H	 0.7947917087	 2.0728920426	-0.2435387907	 0.118729
H	-0.802047003	 1.8251152774	-0.9450786242	 0.11603
H	-0.6367886692	 2.0493986037	 0.7942860005	 0.120424
H	-1.0432392558	-0.3686850516	 0.1487855192	 0.09533
H	 0.3798070321	-0.3249520292	-0.87244852	 0.094467
H	 2.2334452156	 1.1988781055	 1.3435802349	 0.118954
H	 2.8879242042	-0.3116410754	 1.9591512197	 0.113377
H	 2.7125283421	-0.0710304087	 0.2157019715	 0.114198
H	-0.850418723	-0.4482921877	 2.6817203994	 0.120163
H	 0.738288802	-0.3612903544	 3.4459956624	 0.120269
H	 0.0748236147	 1.0621096961	 2.6523081084	 0.113264
H	-0.2361863155	-2.3446442046	 1.0985835923	 0.088322
H	 1.4527085295	-3.7170181976	-0.0186527517	 0.13036
H	 1.3306380689	-2.2155233218	-0.9369251619	 0.128494
H	 2.6947729683	-2.4733598652	 0.1571038738	 0.124214
H	 2.3860923258	-2.4343939102	 2.7063327138	 0.069516
50.6384	64.5342	76.0958	192.7406	196.4297	219.1771	242.0306	288.1073	299.7483	302.8347	321.528	345.7356	365.0717	399.5868	446.3515	453.2468	590.8787	722.4239	783.5751	839.3821	900.4673	926.2433	940.6901	958.0055	1001.3954	1019.6978	1026.5395	1060.9244	1093.7572	1112.7966	1160.446	1201.5904	1231.8921	1240.7205	1304.5622	1321.5814	1357.5608	1370.7545	1404.6587	1406.7372	1411.7364	1426.87	1435.9934	1478.9796	1481.9563	1490.8324	1498.6944	1501.4626	1508.9129	1511.7575	1515.4893	1520.5152	1827.1682	2846.7571	3019.4014	3033.7028	3038.5868	3042.5995	3043.8831	3046.2664	3060.2018	3097.8641	3102.5596	3103.8727	3106.0712	3110.5785	3113.5891	3117.4962	3121.6734
CCC(C)(C)C(C)C=O	CCC(C)(C)[C@@H](C)C=O	
InChI=1S/C8H16O/c1-5-8(3,4)7(2)6-9/h6-7H,5H2,1-4H3	InChI=1S/C8H16O/c1-5-8(3,4)7(2)6-9/h6-7H,5H2,1-4H3/t7-/m0/s1
