13
gdb 5001	3.33735	2.43207	1.41905	2.4644	64.11	-0.2485	-0.0747	0.1738	815.074	0.095884	-398.651923	-398.64521	-398.644265	-398.682901	24.677	
C	-0.0331624078	 1.5043083666	-0.0083210983	-0.461436
C	-0.0096203603	 0.0079976077	-0.0516865367	 0.185694
N	-0.0448053477	-0.6257091395	-1.1796907003	-0.273208
C	-0.0206631817	-2.0046361494	-1.1564777523	-0.092147
C	 0.0376909107	-2.6916172185	-0.0024274939	 0.056633
O	 0.0757353407	-2.0662884705	 1.1922976208	-0.196876
C	 0.0554473486	-0.6803244838	 1.258855253	 0.382432
O	 0.0897242676	-0.1481288063	 2.3344433984	-0.320584
H	 0.8582714073	 1.886908038	 0.5004131226	 0.150652
H	-0.0823879828	 1.9007819065	-1.0226785184	 0.140956
H	-0.8911374396	 1.8573223828	 0.5739626271	 0.150683
H	-0.0507583274	-2.5172320077	-2.1094768641	 0.127411
H	 0.0595720724	-3.7702205957	 0.0914731322	 0.149792
113.8109	150.8301	262.7283	294.204	420.7907	507.242	530.4182	561.9671	564.1119	721.8878	785.544	833.0696	905.2594	926.4545	969.5782	1033.9874	1049.6966	1082.6343	1221.7857	1264.7151	1298.4564	1407.3519	1427.7554	1464.138	1467.3761	1592.7462	1665.8358	1833.276	3042.6049	3095.7431	3156.5077	3207.4788	3228.0808
CC1=NC=COC1=O	Cc1nccoc1=O	
InChI=1S/C5H5NO2/c1-4-5(7)8-3-2-6-4/h2-3H,1H3	InChI=1S/C5H5NO2/c1-4-5(7)8-3-2-6-4/h2-3H,1H3
