13
gdb 5005	3.48829	2.35574	1.40766	0.9873	65.2	-0.2044	-0.0278	0.1766	805.6183	0.099044	-394.852834	-394.846419	-394.845475	-394.883134	24.892	
N	 0.0061345321	 1.3889976919	 0.1330302065	-0.581348
C	-0.0498459563	 0.0170281586	 0.0437993941	 0.178583
C	-1.1826500362	-0.7529539117	 0.0141998259	-0.092237
N	-1.1816149476	-2.1250342861	-0.014437838	-0.264197
C	-0.0316931445	-2.7103171254	-0.0199638027	 0.082797
N	 1.1551345933	-2.0285032237	-0.0065120193	-0.344885
C	 1.2551368608	-0.6423153701	 0.0152458703	 0.405577
O	 2.3311980497	-0.0609497085	 7.9254*^-6	-0.407467
H	 0.9146964275	 1.7639947695	-0.1039091923	 0.268719
H	-0.7803531974	 1.912167021	-0.2170381091	 0.254204
H	-2.1639596371	-0.2856278874	 0.0170566432	 0.101647
H	 0.0416677299	-3.7932220087	-0.0367772192	 0.131723
H	 2.0353825059	-2.5265483394	-0.0282067749	 0.266884
161.3912	265.3827	304.9347	382.7004	432.1299	483.3779	537.6502	566.1335	604.938	613.7356	724.5187	764.5981	800.0172	881.0102	922.7772	923.2869	1085.0818	1099.7714	1194.6453	1253.9587	1327.3721	1410.0518	1437.3271	1470.7418	1586.96	1630.4452	1656.3144	1771.645	3159.062	3183.2728	3560.8408	3594.9692	3684.1546
NC1=CN=CNC1=O	Nc1cnc[nH]c1=O	
InChI=1S/C4H5N3O/c5-3-1-6-2-7-4(3)8/h1-2H,5H2,(H,6,7,8)	InChI=1S/C4H5N3O/c5-3-1-6-2-7-4(3)8/h1-2H,5H2,(H,6,7,8)
