4
gdb 2	293.60975	293.54111	191.39397	1.6256	9.46	-0.257	0.0829	0.3399	26.1563	0.034358	-56.525887	-56.523026	-56.522082	-56.544961	6.316	
N	-0.0404260543	 1.0241077531	 0.0625637998	-0.707143
H	 0.0172574639	 0.0125452063	-0.0273771593	 0.235712
H	 0.9157893661	 1.3587451948	-0.0287577581	 0.235712
H	-0.5202777357	 1.3435321258	-0.7755426124	 0.23572
1103.8733	1684.1158	1684.3072	3458.7145	3575.2414	3575.3343
N	N	
InChI=1S/H3N/h1H3	InChI=1S/H3N/h1H3
