14
gdb 5000	3.29944	2.42291	1.40902	1.9896	69.26	-0.2276	-0.0607	0.1668	833.9172	0.108137	-378.750221	-378.743378	-378.742434	-378.78126	25.639	
C	 0.0869466264	 1.4728580733	 0.0260017399	-0.456816
C	 0.002242269	-0.0209979363	-0.0128626522	 0.283696
N	-0.1274726158	-0.6377258799	-1.1397806948	-0.293706
C	-0.2014524257	-2.0236930863	-1.1219189157	-0.095017
C	-0.1421093492	-2.7216045645	 0.0198715499	 0.04236
O	-0.0062226372	-2.110655793	 1.2229288604	-0.22082
C	 0.0741962618	-0.7297911786	 1.2831852065	 0.336077
N	 0.2016336431	-0.1229182823	 2.3898740589	-0.518925
H	 1.0233688788	 1.7906882672	 0.4959736408	 0.148855
H	 0.021639606	 1.8682030318	-0.9880232768	 0.134983
H	-0.7163475503	 1.8854821743	 0.6450476835	 0.148866
H	-0.3100287952	-2.5231188888	-2.0760379741	 0.121791
H	-0.19304478	-3.7988329083	 0.1108674267	 0.141676
H	 0.2320592081	-0.7829094687	 3.168226977	 0.22698
102.2304	166.4687	253.6292	308.7406	406.2188	478.7437	525.4345	552.286	563.2362	720.7244	759.4166	819.5599	872.3126	907.7915	916.6881	967.4451	1009.1539	1053.8332	1063.7994	1200.0874	1212.4539	1274.3459	1340.6984	1408.249	1420.9222	1463.1729	1466.368	1613.933	1671.2283	1721.1832	3046.2876	3100.8877	3155.4863	3209.4213	3232.3793	3481.9011
CC1=NC=COC1=N	CC1=C(OC=C[N]1)[NH]	
InChI=1S/C5H6N2O/c1-4-5(6)8-3-2-7-4/h2-3,6H,1H3	InChI=1S/C5H6N2O/c1-4-5(6)8-3-2-7-4/h2-3,6H,1H3
