8
gdb 7	80.46225	19.90649	19.90633	0.	23.95	-0.3385	0.1041	0.4426	109.5031	0.074542	-79.764152	-79.760666	-79.759722	-79.787269	10.098	
C	-0.0187040036	 1.5255820146	 0.0104328082	-0.345672
C	 0.0021037439	-0.0038819102	 0.0019988214	-0.345672
H	 0.9948727479	 1.9397432357	 0.0029412016	 0.115222
H	-0.5420761069	 1.9236106317	-0.8651173523	 0.115225
H	-0.5252411248	 1.9141730785	 0.9000239916	 0.115225
H	 0.5254865372	-0.4019078419	 0.8775439536	 0.115225
H	-1.0114765071	-0.4180337979	 0.0095084879	 0.115222
H	 0.5086261934	-0.3924704005	-0.8876011721	 0.115225
308.9725	822.3972	822.7794	1003.6498	1221.5079	1221.9354	1409.4025	1422.7633	1502.2478	1502.5606	1507.3116	1507.9634	3034.5722	3035.9131	3086.4825	3086.5555	3111.4684	3111.5421
CC	CC	
InChI=1S/C2H6/c1-2/h1-2H3	InChI=1S/C2H6/c1-2/h1-2H3
